&cam_inparm 
 mfilt   = 1,365,30        
 nhtfrq  = 0,-24,-24        
 fincl2  = 'TREFHTMN','TREFHTMX','TREFHT','PRECC','PRECL','PRECT','PRECSC','PRECSL','PSL','PS','QREFHT','U10','FLDS','FSDS','CLDTOT','SST','ICEFRAC'
 fincl3  = 'OMEGAQ','VQ','U','V','OMEGA' 
/
