&clm_inparm
 fpftdyn = '$DIN_LOC_ROOT/lnd/clm2/surfdata/surfdata.pftdyn_0.9x1.25_simyr1850-2005_veg_c091008.nc'
 hist_fincl2 = 'WA','WT','H2OSOI','SOILLIQ','TG','TSOI','U10','WIND'
 hist_fincl3 = 'TLAI'
 hist_dov2xy = .true.,.true.,.false.
 hist_nhtfrq = 0,0,0
 hist_mfilt = 12,12,12
/
